REMARK  5 active torsions:
REMARK  status: ('A' for Active; 'I' for Inactive)
REMARK    1  A    between atoms: O_6  and  C_12 
REMARK    2  A    between atoms: O_6  and  C_18 
REMARK    3  A    between atoms: N_7  and  C_12 
REMARK    4  A    between atoms: C_9  and  C_14 
REMARK    5  A    between atoms: C_10  and  C_15 
ROOT
HETATM    1 BR   UNL     1      -3.205  -2.944  -0.522  1.00  0.00    -0.047 Br
HETATM    2  N   UNL     1      -0.813   0.215   0.328  1.00  0.00    -0.318 N 
HETATM    3  N   UNL     1       0.736  -4.104  -0.896  1.00  0.00    -0.191 NA
HETATM    4  C   UNL     1       0.163  -0.715   0.056  1.00  0.00     0.069 A 
HETATM    5  C   UNL     1      -2.051  -0.356   0.186  1.00  0.00     0.140 A 
HETATM    6  C   UNL     1      -0.474  -1.898  -0.266  1.00  0.00     0.092 A 
HETATM    7  C   UNL     1      -1.869  -1.670  -0.184  1.00  0.00     0.065 A 
HETATM    8  C   UNL     1       0.192  -3.112  -0.613  1.00  0.00     0.103 C 
ENDROOT
BRANCH   4   9
HETATM    9  C   UNL     1       1.570  -0.409   0.124  1.00  0.00    -0.007 A 
HETATM   10  C   UNL     1       2.237   0.064  -1.007  1.00  0.00     0.015 A 
HETATM   11  C   UNL     1       3.599   0.359  -0.942  1.00  0.00     0.024 A 
HETATM   12  C   UNL     1       4.294   0.182   0.254  1.00  0.00     0.034 A 
HETATM   13 CL   UNL     1       5.974   0.547   0.336  1.00  0.00    -0.084 Cl
HETATM   14  C   UNL     1       3.628  -0.290   1.385  1.00  0.00     0.024 A 
HETATM   15  C   UNL     1       2.266  -0.586   1.320  1.00  0.00     0.015 A 
ENDBRANCH   4   9
BRANCH   2  16
HETATM   16  C   UNL     1      -0.575   1.592   0.711  1.00  0.00     0.299 C 
BRANCH  16  17
HETATM   17  O   UNL     1      -0.520   2.364  -0.481  1.00  0.00    -0.372 OA
BRANCH  17  18
HETATM   18  C   UNL     1      -0.317   3.741  -0.199  1.00  0.00     0.165 C 
HETATM   19  C   UNL     1      -0.267   4.510  -1.502  1.00  0.00     0.033 C 
ENDBRANCH  17  18
ENDBRANCH  16  17
ENDBRANCH   2  16
BRANCH   5  20
HETATM   20  C   UNL     1      -3.295   0.411   0.415  1.00  0.00     0.434 C 
HETATM   21  F   UNL     1      -4.442  -0.314   0.227  1.00  0.00    -0.165 F 
HETATM   22  F   UNL     1      -3.412   0.919   1.683  1.00  0.00    -0.165 F 
HETATM   23  F   UNL     1      -3.419   1.494  -0.414  1.00  0.00    -0.165 F 
ENDBRANCH   5  20
TORSDOF 5
